Test_Systems/IEEE_37_Bus-G/Line.DSS
New "Line.l1" phases=3 bus1=701.1.2.3 bus2=702.1.2.3 linecode=722 normamps=400 emergamps=600 length=0.96
New "Line.l2" phases=3 bus1=702.1.2.3 bus2=705.1.2.3 linecode=724 normamps=400 emergamps=600 length=0.4
New "Line.l3" phases=3 bus1=702.1.2.3 bus2=713.1.2.3 linecode=723 normamps=400 emergamps=600 length=0.36
New "Line.l4" phases=3 bus1=702.1.2.3 bus2=703.1.2.3 linecode=722 normamps=400 emergamps=600 length=1.32
New "Line.l5" phases=3 bus1=703.1.2.3 bus2=727.1.2.3 linecode=724 normamps=400 emergamps=600 length=0.24
New "Line.l6" phases=3 bus1=703.1.2.3 bus2=730.1.2.3 linecode=723 normamps=400 emergamps=600 length=0.6
New "Line.l7" phases=3 bus1=704.1.2.3 bus2=714.1.2.3 linecode=724 normamps=400 emergamps=600 length=0.08
New "Line.l8" phases=3 bus1=704.1.2.3 bus2=720.1.2.3 linecode=723 normamps=400 emergamps=600 length=0.8
New "Line.l9" phases=3 bus1=705.1.2.3 bus2=742.1.2.3 linecode=724 normamps=400 emergamps=600 length=0.32
New "Line.l10" phases=3 bus1=705.1.2.3 bus2=712.1.2.3 linecode=724 normamps=400 emergamps=600 length=0.24
New "Line.l11" phases=3 bus1=706.1.2.3 bus2=725.1.2.3 linecode=724 normamps=400 emergamps=600 length=0.28
New "Line.l12" phases=3 bus1=707.1.2.3 bus2=724.1.2.3 linecode=724 normamps=400 emergamps=600 length=0.76
New "Line.l13" phases=3 bus1=707.1.2.3 bus2=722.1.2.3 linecode=724 normamps=400 emergamps=600 length=0.12
New "Line.l14" phases=3 bus1=708.1.2.3 bus2=733.1.2.3 linecode=723 normamps=400 emergamps=600 length=0.32
New "Line.l15" phases=3 bus1=708.1.2.3 bus2=732.1.2.3 linecode=724 normamps=400 emergamps=600 length=0.32
New "Line.l16" phases=3 bus1=709.1.2.3 bus2=731.1.2.3 linecode=723 normamps=400 emergamps=600 length=0.6
New "Line.l17" phases=3 bus1=709.1.2.3 bus2=708.1.2.3 linecode=723 normamps=400 emergamps=600 length=0.32
New "Line.l18" phases=3 bus1=710.1.2.3 bus2=735.1.2.3 linecode=724 normamps=400 emergamps=600 length=0.2
New "Line.l19" phases=3 bus1=710.1.2.3 bus2=736.1.2.3 linecode=724 normamps=400 emergamps=600 length=1.28
New "Line.l20" phases=3 bus1=711.1.2.3 bus2=741.1.2.3 linecode=723 normamps=400 emergamps=600 length=0.4
New "Line.l21" phases=3 bus1=711.1.2.3 bus2=740.1.2.3 linecode=724 normamps=400 emergamps=600 length=0.2
New "Line.l22" phases=3 bus1=713.1.2.3 bus2=704.1.2.3 linecode=723 normamps=400 emergamps=600 length=0.52
New "Line.l23" phases=3 bus1=714.1.2.3 bus2=718.1.2.3 linecode=724 normamps=400 emergamps=600 length=0.52
New "Line.l24" phases=3 bus1=720.1.2.3 bus2=707.1.2.3 linecode=724 normamps=400 emergamps=600 length=0.92
New "Line.l25" phases=3 bus1=720.1.2.3 bus2=706.1.2.3 linecode=723 normamps=400 emergamps=600 length=0.6
New "Line.l26" phases=3 bus1=727.1.2.3 bus2=744.1.2.3 linecode=723 normamps=400 emergamps=600 length=0.28
New "Line.l27" phases=3 bus1=730.1.2.3 bus2=709.1.2.3 linecode=723 normamps=400 emergamps=600 length=0.2
New "Line.l28" phases=3 bus1=733.1.2.3 bus2=734.1.2.3 linecode=723 normamps=400 emergamps=600 length=0.56
New "Line.l29" phases=3 bus1=734.1.2.3 bus2=737.1.2.3 linecode=723 normamps=400 emergamps=600 length=0.64
New "Line.l30" phases=3 bus1=734.1.2.3 bus2=710.1.2.3 linecode=724 normamps=400 emergamps=600 length=0.52
New "Line.l31" phases=3 bus1=737.1.2.3 bus2=738.1.2.3 linecode=723 normamps=400 emergamps=600 length=0.4
New "Line.l32" phases=3 bus1=738.1.2.3 bus2=711.1.2.3 linecode=723 normamps=400 emergamps=600 length=0.4
New "Line.l33" phases=3 bus1=744.1.2.3 bus2=728.1.2.3 linecode=724 normamps=400 emergamps=600 length=0.2
New "Line.l34" phases=3 bus1=744.1.2.3 bus2=729.1.2.3 linecode=724 normamps=400 emergamps=600 length=0.28
New "Line.l35" phases=3 bus1=799r.1.2.3 bus2=701.1.2.3 linecode=721 normamps=400 emergamps=600 length=1.85
New "Line.jumper" phases=1 bus1=799.2 bus2=799r.2 r0=0.001 r1=0.001 x0=0 x1=0 C0=0 C1=0
